Version 4
SHEET 1 1048 680
WIRE 1008 -208 320 -208
WIRE 160 -160 -192 -160
WIRE 320 -144 320 -208
WIRE 320 -144 224 -144
WIRE 160 -128 -208 -128
WIRE 160 -96 -304 -96
WIRE 1008 -96 1008 -208
WIRE 1008 -96 784 -96
WIRE 784 48 784 -96
WIRE 784 48 992 32
WIRE -192 64 -192 -160
WIRE 320 112 320 -144
WIRE 336 112 320 112
WIRE 992 128 992 112
WIRE 992 128 976 128
WIRE 80 144 -192 144
WIRE 336 160 336 112
WIRE 608 160 336 160
WIRE -208 192 -208 -128
WIRE 608 192 608 160
WIRE 672 192 608 192
WIRE 464 208 336 208
WIRE 976 208 976 128
WIRE 1008 208 976 208
WIRE 336 240 336 208
WIRE 336 240 272 240
WIRE 80 272 80 144
WIRE 80 272 -208 272
WIRE 736 272 736 192
WIRE 1008 272 1008 208
WIRE 1008 272 736 272
WIRE 464 288 464 208
WIRE 736 288 736 272
WIRE 736 288 464 288
WIRE -304 320 -304 -96
WIRE -192 320 -304 320
WIRE 80 400 80 272
WIRE 80 400 -192 400
WIRE 80 416 80 400
FLAG 272 240 0
FLAG 80 416 0
SYMBOL voltage -192 48 R0
WINDOW 3 -85 -27 Left 2
WINDOW 123 0 0 Left 0
WINDOW 39 0 0 Left 0
SYMATTR InstName V1
SYMATTR Value PULSE(5 0 0 10 10 50 100 8)
SYMBOL voltage -208 176 R0
WINDOW 3 -67 -15 Left 2
WINDOW 123 0 0 Left 0
WINDOW 39 0 0 Left 0
SYMATTR InstName V2
SYMATTR Value PULSE(5 0 0 10 10 50 100 8)
SYMBOL voltage -192 304 R0
WINDOW 3 -21 -2 Left 2
WINDOW 123 0 0 Left 0
WINDOW 39 0 0 Left 0
SYMATTR InstName V3
SYMATTR Value 5
SYMBOL Digital\\inv 672 128 R0
SYMATTR InstName A2
SYMBOL res 976 16 R0
SYMATTR InstName R1
SYMATTR Value 1
SYMBOL Digital\\or 192 -192 R0
SYMATTR InstName A1
TEXT -536 272 Left 2 !.tran 0 1000 0
